
#======================================================================
# CRYSTAL DATA
#----------------------------------------------------------------------
data_VESTA_phase_1

_chemical_name_common                  ' S                                    '
_cell_length_a                         20.000000
_cell_length_b                         20.000000
_cell_length_c                         20.000000
_cell_angle_alpha                      90.000000
_cell_angle_beta                       90.000000
_cell_angle_gamma                      90.000000
_cell_volume                           8000.000000
_space_group_name_H-M_alt              'P 1'
_space_group_IT_number                 1

loop_
_space_group_symop_operation_xyz
   'x, y, z'

loop_
   _atom_site_label
   _atom_site_occupancy
   _atom_site_fract_x
   _atom_site_fract_y
   _atom_site_fract_z
   _atom_site_adp_type
   _atom_site_U_iso_or_equiv
   _atom_site_type_symbol
   S1         1.0     0.400821     0.598414     0.487827    Uiso  ? S
   S2         1.0     0.489808     0.630953     0.528514    Uiso  ? S
   S3         1.0     0.568231     0.597546     0.470498    Uiso  ? S
   S4         1.0     0.607091     0.511416     0.511777    Uiso  ? S
   S5         1.0     0.566668     0.429374     0.464169    Uiso  ? S
   S6         1.0     0.487618     0.393139     0.519580    Uiso  ? S
   S7         1.0     0.399275     0.430243     0.481495    Uiso  ? S
   S8         1.0     0.370332     0.512660     0.536286    Uiso  ? S
