
#======================================================================
# CRYSTAL DATA
#----------------------------------------------------------------------
data_VESTA_phase_1

_chemical_name_common                  ' S Li                                 '
_cell_length_a                         20.000000
_cell_length_b                         20.000000
_cell_length_c                         20.000000
_cell_angle_alpha                      90.000000
_cell_angle_beta                       90.000000
_cell_angle_gamma                      90.000000
_cell_volume                           8000.000000
_space_group_name_H-M_alt              'P 1'
_space_group_IT_number                 1

loop_
_space_group_symop_operation_xyz
   'x, y, z'

loop_
   _atom_site_label
   _atom_site_occupancy
   _atom_site_fract_x
   _atom_site_fract_y
   _atom_site_fract_z
   _atom_site_adp_type
   _atom_site_U_iso_or_equiv
   _atom_site_type_symbol
   S1         1.0     0.361476     0.509834     0.426921    Uiso  ? S
   S2         1.0     0.422450     0.569657     0.483912    Uiso  ? S
   S3         1.0     0.521209     0.568233     0.444176    Uiso  ? S
   S4         1.0     0.577208     0.496194     0.492773    Uiso  ? S
   S5         1.0     0.561363     0.404476     0.447419    Uiso  ? S
   S6         1.0     0.371352     0.411130     0.458428    Uiso  ? S
   Li1        1.0     0.472533     0.435275     0.523088    Uiso  ? Li
   Li2        1.0     0.461574     0.446076     0.387680    Uiso  ? Li
